
 Fire Dynamics Simulator

 Current Date     : March 25, 2020  10:01:43
 Revision         : FDS6.7.0-0-g5ccea76-master
 Revision Date    : Mon Jun 25 13:03:23 2018 -0400
 Compiler         : Intel ifort 18.0.2.185
 Compilation Date : Tue 06/26/2018  10:49 AM

 MPI Enabled;    Number of MPI Processes:       1
 OpenMP Enabled; Number of OpenMP Threads:      4

 MPI version: 3.1
 MPI library version: Intel(R) MPI Library 2018 Update 2 for Windows* OS


 Job TITLE        : Single Couch Test Case
 Job ID string    : case001


 Grid Dimensions, Mesh     1

   Cells in the X Direction            24
   Cells in the Y Direction            10
   Cells in the Z Direction            24


 Physical Dimensions, Mesh     1

   Length (m)                       2.400
   Width  (m)                       1.000
   Height (m)                       2.400
   Initial Time Step (s)            0.102


 Miscellaneous Parameters

   Simulation Start Time (s)          0.0
   Simulation End Time (s)          120.0
   LES Calculation
   Eddy Viscosity:           Deardorff Model (C_DEARDORFF)                          0.10
   Near-wall Eddy Viscosity: Smagorinsky with Van Driest damping (C_SMAGORINSKY)    0.20
   Turbulent Prandtl Number          0.50
   Turbulent Schmidt Number          0.50
   Ambient Temperature (C)          20.00


 Mass Fraction Transformation Matrix to Convert Species Mixtures (Columns) to Primitive Species (Rows)

                         AIR       PROPANE   PRODUCTS
   PROPANE               0.000000  1.000000  0.000000
   NITROGEN              0.763077  0.000000  0.717046
   OXYGEN                0.231181  0.000000  0.000000
   CARBON DIOXIDE        0.000592  0.000000  0.178982
   CARBON MONOXIDE       0.000000  0.000000  0.000000
   WATER VAPOR           0.005149  0.000000  0.103369
   SOOT                  0.000000  0.000000  0.000603
   HYDROGEN              0.000000  0.000000  0.000000


 Primitive Species Information

   PROPANE
   Gas Species
   Molecular Weight (g/mol)            44.09562
   Ambient Density (kg/m^3)            1.833
   Enthalpy of Formation (J/kg)       -2.37E+06

   NITROGEN
   Gas Species
   Molecular Weight (g/mol)            28.01340
   Ambient Density (kg/m^3)            1.165
   Enthalpy of Formation (J/kg)        0.00E+00

   OXYGEN
   Gas Species
   Molecular Weight (g/mol)            31.99880
   Ambient Density (kg/m^3)            1.330
   Enthalpy of Formation (J/kg)        0.00E+00

   CARBON DIOXIDE
   Gas Species
   Molecular Weight (g/mol)            44.00950
   Ambient Density (kg/m^3)            1.830
   Enthalpy of Formation (J/kg)       -8.94E+06

   CARBON MONOXIDE
   Gas Species
   Molecular Weight (g/mol)            28.01010
   Ambient Density (kg/m^3)            1.164
   Enthalpy of Formation (J/kg)       -3.95E+06

   WATER VAPOR
   Gas Species
   Molecular Weight (g/mol)            18.01528
   Ambient Density (kg/m^3)            0.749
   Enthalpy of Formation (J/kg)       -1.34E+07

   SOOT
   Gas Species
   Molecular Weight (g/mol)            10.91042
   Ambient Density (kg/m^3)            0.454
   Enthalpy of Formation (J/kg)        0.00E+00

   HYDROGEN
   Gas Species
   Molecular Weight (g/mol)             2.01588
   Ambient Density (kg/m^3)            0.084
   Enthalpy of Formation (J/kg)        0.00E+00


 Tracked (Lumped) Species Information

   AIR
   Molecular Weight (g/mol)            28.76564
   Ambient Density (kg/m^3)            1.196
   Initial Mass Fraction               1.000
   Enthalpy of Formation (J/kg)     -7.44E+04

   Sub Species                    Mass Fraction     Mole Fraction
   NITROGEN                       7.630774E-01      7.835682E-01
   OXYGEN                         2.311814E-01      2.078229E-01
   CARBON DIOXIDE                 5.919362E-04      3.869034E-04
   WATER VAPOR                    5.149269E-03      8.222023E-03
 
     Viscosity (kg/m/s) Ambient,  293 K:  1.80E-05
                                  500 K:  2.61E-05
                                 1000 K:  4.13E-05
                                 1500 K:  5.37E-05
   Therm. Cond. (W/m/K) Ambient,  293 K:  2.56E-02
                                  500 K:  3.81E-02
                                 1000 K:  6.68E-02
                                 1500 K:  9.24E-02
        Enthalpy (J/kg) Ambient,  293 K: -7.97E+04
                                  500 K:  1.33E+05
                                 1000 K:  6.82E+05
                                 1500 K:  1.28E+06
    Spec. Heat (J/kg/K) Ambient,  293 K:  1.02E+03
                                  500 K:  1.04E+03
                                 1000 K:  1.16E+03
                                 1500 K:  1.23E+03
   Diff. Coeff. (m^2/s) Ambient,  293 K:  1.99E-05
                                  500 K:  4.96E-05
                                 1000 K:  1.58E-04
                                 1500 K:  3.09E-04

   PROPANE
   Molecular Weight (g/mol)            44.09562
   Ambient Density (kg/m^3)            1.833
   Initial Mass Fraction               0.000
   Enthalpy of Formation (J/kg)     -2.37E+06

   Sub Species                    Mass Fraction     Mole Fraction
   PROPANE                        1.000000E+00      1.000000E+00
 
     Viscosity (kg/m/s) Ambient,  293 K:  8.08E-06
                                  500 K:  1.31E-05
                                 1000 K:  2.23E-05
                                 1500 K:  2.96E-05
   Therm. Cond. (W/m/K) Ambient,  293 K:  1.66E-02
                                  500 K:  4.18E-02
                                 1000 K:  1.11E-01
                                 1500 K:  1.72E-01
        Enthalpy (J/kg) Ambient,  293 K: -2.38E+06
                                  500 K: -1.95E+06
                                 1000 K: -2.77E+05
                                 1500 K:  1.90E+06
    Spec. Heat (J/kg/K) Ambient,  293 K:  1.65E+03
                                  500 K:  2.55E+03
                                 1000 K:  3.96E+03
                                 1500 K:  4.67E+03
   Diff. Coeff. (m^2/s) Ambient,  293 K:  1.11E-05
                                  500 K:  2.86E-05
                                 1000 K:  9.32E-05
                                 1500 K:  1.83E-04

   PRODUCTS
   Molecular Weight (g/mol)            28.20353
   Ambient Density (kg/m^3)            1.172
   Initial Mass Fraction               0.000
   Enthalpy of Formation (J/kg)     -2.99E+06

   Sub Species                    Mass Fraction     Mole Fraction
   NITROGEN                       7.170463E-01      7.219128E-01
   CARBON DIOXIDE                 1.789818E-01      1.147006E-01
   CARBON MONOXIDE                0.000000E+00      0.000000E+00
   WATER VAPOR                    1.033687E-01      1.618272E-01
   SOOT                           6.032297E-04      1.559353E-03
 
     Viscosity (kg/m/s) Ambient,  293 K:  1.61E-05
                                  500 K:  2.39E-05
                                 1000 K:  3.89E-05
                                 1500 K:  5.14E-05
   Therm. Cond. (W/m/K) Ambient,  293 K:  2.34E-02
                                  500 K:  3.62E-02
                                 1000 K:  6.71E-02
                                 1500 K:  9.62E-02
        Enthalpy (J/kg) Ambient,  293 K: -3.00E+06
                                  500 K: -2.76E+06
                                 1000 K: -2.15E+06
                                 1500 K: -1.48E+06
    Spec. Heat (J/kg/K) Ambient,  293 K:  1.09E+03
                                  500 K:  1.14E+03
                                 1000 K:  1.30E+03
                                 1500 K:  1.40E+03
   Diff. Coeff. (m^2/s) Ambient,  293 K:  1.95E-05
                                  500 K:  4.95E-05
                                 1000 K:  1.60E-04
                                 1500 K:  3.15E-04


 Gas Phase Reaction Information

   Reaction ID:  PROPANE

   Fuel                                           Heat of Combustion (kJ/kg)
   PROPANE                                                        45998.9362

   Stoichiometry

   Primitive Species Stoich. Coeff.
   Species ID                                                          Molar
   PROPANE                                                         -1.000000
   NITROGEN                                                        -0.000000
   OXYGEN                                                          -4.962615
   CARBON DIOXIDE                                                   2.963626
   WATER VAPOR                                                      3.997979
   SOOT                                                             0.040416

   Tracked (Lumped) Species Stoich. Coeff.
   Species ID                                             Molar         Mass
   AIR                                               -23.879064   -15.577433
   PROPANE                                            -1.000000    -1.000000
   PRODUCTS                                           25.918469    16.577433

   Reaction Kinetics

   Arrhenius Parameters
   Pre-exponential:    Infinite
   Activation Energy:  N/A

   ODE Solver:  EXPLICIT EULER
   Extinction Model:  EXTINCTION 2
   Ignition Temperature (K):            0.0
   Critical Flame Temperature (K):   1720.2


 Material Information

   1 FABRIC                                                      
     Properties completely fabricated
     Emissivity                      0.900
     Density (kg/m3)                 100.0
     Specific Heat (kJ/kg/K)      1.00E+00
     Conductivity (W/m/K)           0.1000
     Reaction  1
        Gaseous Yields:
        AIR                                                         :     0.00
        PROPANE                                                     :     1.00
        PRODUCTS                                                    :     0.00
        A (1/s)    :  1.82E+15
        E (kJ/kmol):  1.99E+05
        H_R (kJ/kg):  3.00E+03
        N_S        :     1.00

   2 FOAM                                                        
     Properties completely fabricated
     Emissivity                      0.900
     Density (kg/m3)                  40.0
     Specific Heat (kJ/kg/K)      1.00E+00
     Conductivity (W/m/K)           0.0500
     Reaction  1
        Gaseous Yields:
        AIR                                                         :     0.00
        PROPANE                                                     :     1.00
        PRODUCTS                                                    :     0.00
        A (1/s)    :  1.82E+15
        E (kJ/kmol):  1.99E+05
        H_R (kJ/kg):  1.50E+03
        N_S        :     1.00

   3 GYPSUM PLASTER                                              
     Quintiere, Fire Behavior
     Emissivity                      0.900
     Density (kg/m3)                1440.0
     Specific Heat (kJ/kg/K)      8.40E-01
     Conductivity (W/m/K)           0.4800


 Surface Conditions

   0 INERT

   1 UPHOLSTERY
     Properties completely fabricated
     Material List
          1  FABRIC
          2  FOAM
     Layer  1
        Thickness   (m):  0.00200
        Density (kg/m3):   100.00
        FABRIC, Mass fraction:    1.00
     Layer  2
        Thickness   (m):  0.10000
        Density (kg/m3):    40.00
        FOAM, Mass fraction:    1.00
     Total surface density     4.200 kg/m2
     Reaction products considered from the first  1.00 layers.
     Solid Phase Node, Layer, Coordinates(m):
                    0      1       0.0000000
                    1      1       0.0006667
                    2      1       0.0013333
                    3      1       0.0020000
                    4      2       0.0031111
                    5      2       0.0042222
                    6      2       0.0053333
                    7      2       0.0064444
                    8      2       0.0075556
                    9      2       0.0086667
                   10      2       0.0097778
                   11      2       0.0108889
                   12      2       0.0120000
                   13      2       0.0131111
                   14      2       0.0142222
                   15      2       0.0153333
                   16      2       0.0164444
                   17      2       0.0175556
                   18      2       0.0186667
                   19      2       0.0197778
                   20      2       0.0208889
                   21      2       0.0220000
                   22      2       0.0231111
                   23      2       0.0242222
                   24      2       0.0253333
                   25      2       0.0264444
                   26      2       0.0275556
                   27      2       0.0286667
                   28      2       0.0297778
                   29      2       0.0308889
                   30      2       0.0320000
                   31      2       0.0331111
                   32      2       0.0342222
                   33      2       0.0353333
                   34      2       0.0364444
                   35      2       0.0375556
                   36      2       0.0386667
                   37      2       0.0397778
                   38      2       0.0408889
                   39      2       0.0420000
                   40      2       0.0431111
                   41      2       0.0442222
                   42      2       0.0453333
                   43      2       0.0464444
                   44      2       0.0475556
                   45      2       0.0486667
                   46      2       0.0497778
                   47      2       0.0508889
                   48      2       0.0520000
                   49      2       0.0531111
                   50      2       0.0542222
                   51      2       0.0553333
                   52      2       0.0564444
                   53      2       0.0575556
                   54      2       0.0586667
                   55      2       0.0597778
                   56      2       0.0608889
                   57      2       0.0620000
                   58      2       0.0631111
                   59      2       0.0642222
                   60      2       0.0653333
                   61      2       0.0664444
                   62      2       0.0675556
                   63      2       0.0686667
                   64      2       0.0697778
                   65      2       0.0708889
                   66      2       0.0720000
                   67      2       0.0731111
                   68      2       0.0742222
                   69      2       0.0753333
                   70      2       0.0764444
                   71      2       0.0775556
                   72      2       0.0786667
                   73      2       0.0797778
                   74      2       0.0808889
                   75      2       0.0820000
                   76      2       0.0831111
                   77      2       0.0842222
                   78      2       0.0853333
                   79      2       0.0864444
                   80      2       0.0875556
                   81      2       0.0886667
                   82      2       0.0897778
                   83      2       0.0908889
                   84      2       0.0920000
                   85      2       0.0931111
                   86      2       0.0942222
                   87      2       0.0953333
                   88      2       0.0964444
                   89      2       0.0975556
                   90      2       0.0986667
                   91      2       0.0997778
                   92      2       0.1008889
                   93      2       0.1020000
     Exposed Backing

   2 WALL (DEFAULT)
     Material List
          1  GYPSUM PLASTER
     Layer  1
        Thickness   (m):  0.01200
        Density (kg/m3):  1440.00
        GYPSUM PLASTER, Mass fraction:    1.00
     Total surface density    17.280 kg/m2
     Reaction products considered from the first  0.50 layers.
     Solid Phase Node, Layer, Coordinates(m):
                    0      1       0.0000000
                    1      1       0.0005455
                    2      1       0.0016364
                    3      1       0.0038182
                    4      1       0.0081818
                    5      1       0.0103636
                    6      1       0.0114545
                    7      1       0.0120000
     Exposed Backing

   3 ignitor
     Wall or Vent Temperature (C)  1000.0
     Convection length scale (m)  2.00E-02

   4 OPEN
     Passive Vent to Atmosphere

   5 MIRROR
     Symmetry Plane

   6 INTERPOLATED

   7 PERIODIC

   8 HVAC

   9 MASSLESS TRACER

  10 DROPLET

  11 VEGETATION

  12 EVACUATION_OUTFLOW
     Normal Velocity (m/s)         0.000

  13 MASSLESS TARGET

  14 PERIODIC WIND


 Device Coordinates

     1 Coords:     2.55     4.35     0.75, Make: null, ID: U, Quantity: INTEGRATED INTENSITY
     2 Coords:     2.55     4.40     0.75, Make: null, ID: burn, Quantity: BURNING RATE
     3 Coords:     2.55     4.40     0.75, Make: null, ID: con, Quantity: CONVECTIVE HEAT FLUX
     4 Coords:     2.55     4.35     0.75, Make: null, ID: gas, Quantity: TEMPERATURE
     5 Coords:     2.55     4.40     0.75, Make: null, ID: gauge, Quantity: GAUGE HEAT FLUX
     6 Coords:     2.55     4.35     0.75, Make: null, ID: hrrpuv, Quantity: HRRPUV
     7 Coords:     2.55     4.35     0.75, Make: null, ID: qr, Quantity: RADIATION LOSS
     8 Coords:     2.55     4.40     0.75, Make: null, ID: rad, Quantity: RADIATIVE HEAT FLUX
     9 Coords:     2.55     4.40     0.75, Make: null, ID: temp, Quantity: WALL TEMPERATURE


 Slice File Information, Mesh     1

   Sampling Interval (s)             1.000

   1 Nodes:  14  14   0  10   0  24, Quantity: TEMPERATURE
   2 Nodes:  14  14   0  10   0  24, Quantity: U-VELOCITY
   3 Nodes:  14  14   0  10   0  24, Quantity: V-VELOCITY
   4 Nodes:  14  14   0  10   0  24, Quantity: W-VELOCITY
   5 Nodes:   0  24   0  10   0  24, Quantity: TEMPERATURE


 Boundary File Information

   Sampling Interval (s)             0.200

   1 Quantity: WALL TEMPERATURE


 Radiation Model Information

   Number of control angles  104
   Time step increment         3
   Angle increment             5
   Theta band N_phi   Solid angle
     1:        4  0.12
     2:       12  0.11
     3:       16  0.13
     4:       20  0.12
     5:       20  0.12
     6:       16  0.13
     7:       12  0.11
     8:        4  0.12
   Using gray gas absorption.
   Mean beam length  0.100 m
 
 

 Run Time Diagnostics

       Time Step       1   March 25, 2020  10:01:43
       Step Size:    0.102E+00 s, Total Time:       0.10 s
       Pressure Iterations:      1
       Maximum Velocity Error:  0.19E-02 on Mesh   1 at (   4   3   7)
       Maximum Pressure Error:  0.16E-04 on Mesh   1 at (  15   8   7)
       ---------------------------------------------------------------
       Max CFL number:  0.18E-01 at (  14,   3,  11)
       Max divergence:  0.16E-01 at (  15,   8,   7)
       Min divergence: -0.96E-06 at (  23,   4,  18)
       Max VN number:   0.14E-01 at (  12,   4,   9)
       No. of Lagrangian Particles:             3
       Radiation Loss to Boundaries:         0.001 kW
 
       Time Step       2   March 25, 2020  10:01:43
       Step Size:    0.102E+00 s, Total Time:       0.20 s
       Pressure Iterations:      1
       Maximum Velocity Error:  0.13E-02 on Mesh   1 at (   3   3   2)
       Maximum Pressure Error:  0.16E-02 on Mesh   1 at (  14   8   7)
       ---------------------------------------------------------------
       Max CFL number:  0.18E-01 at (  14,   3,  11)
       Max divergence:  0.40E-01 at (  15,   8,   7)
       Min divergence: -0.95E-06 at (  23,   4,  18)
       Max VN number:   0.14E-01 at (  12,   4,   9)
       No. of Lagrangian Particles:             3
       Radiation Loss to Boundaries:         0.001 kW
 
       Time Step       3   March 25, 2020  10:01:43
       Step Size:    0.102E+00 s, Total Time:       0.31 s
       Pressure Iterations:      1
       Maximum Velocity Error:  0.99E-03 on Mesh   1 at (   5   8   6)
       Maximum Pressure Error:  0.70E-02 on Mesh   1 at (  16   8   7)
       ---------------------------------------------------------------
       Max CFL number:  0.18E-01 at (  14,   3,  11)
       Max divergence:  0.66E-01 at (  15,   8,   7)
       Min divergence: -0.95E-06 at (  23,   4,  18)
       Max VN number:   0.14E-01 at (  12,   4,   9)
       No. of Lagrangian Particles:             3
       Radiation Loss to Boundaries:         0.001 kW
 
       Time Step       4   March 25, 2020  10:01:43
       Step Size:    0.102E+00 s, Total Time:       0.41 s
       Pressure Iterations:      1
       Maximum Velocity Error:  0.40E-03 on Mesh   1 at (  14   9   7)
       Maximum Pressure Error:  0.15E-01 on Mesh   1 at (  16   8   7)
       ---------------------------------------------------------------
       Max CFL number:  0.22E-01 at (  15,   8,   7)
       Max divergence:  0.94E-01 at (  15,   8,   7)
       Min divergence: -0.91E-06 at (  23,   4,  18)
       Max VN number:   0.14E-01 at (  12,   4,   9)
       No. of Lagrangian Particles:             3
       Radiation Loss to Boundaries:         0.003 kW
 
       Time Step       5   March 25, 2020  10:01:43
       Step Size:    0.102E+00 s, Total Time:       0.51 s
       Pressure Iterations:      1
       Maximum Velocity Error:  0.73E-03 on Mesh   1 at (  16   9   7)
       Maximum Pressure Error:  0.22E-01 on Mesh   1 at (  16   8   7)
       ---------------------------------------------------------------
       Max CFL number:  0.29E-01 at (  15,   8,   7)
       Max divergence:  0.12E+00 at (  15,   8,   7)
       Min divergence: -0.91E-06 at (  23,   4,  18)
       Max VN number:   0.14E-01 at (  12,   4,   9)
       No. of Lagrangian Particles:             3
       Radiation Loss to Boundaries:         0.003 kW
 
       Time Step       6   March 25, 2020  10:01:43
       Step Size:    0.102E+00 s, Total Time:       0.61 s
       Pressure Iterations:      1
       Maximum Velocity Error:  0.10E-02 on Mesh   1 at (  15   9   7)
       Maximum Pressure Error:  0.22E-01 on Mesh   1 at (  16   8   7)
       ---------------------------------------------------------------
       Max CFL number:  0.39E-01 at (  15,   8,   7)
       Max divergence:  0.15E+00 at (  15,   8,   7)
       Min divergence: -0.90E-06 at (  23,   4,  18)
       Max VN number:   0.14E-01 at (  12,   4,   9)
       No. of Lagrangian Particles:             3
       Radiation Loss to Boundaries:         0.003 kW
 
       Time Step       7   March 25, 2020  10:01:43
       Step Size:    0.102E+00 s, Total Time:       0.71 s
       Pressure Iterations:      1
       Maximum Velocity Error:  0.12E-02 on Mesh   1 at (  15   9   7)
       Maximum Pressure Error:  0.17E-01 on Mesh   1 at (  16   8   7)
       ---------------------------------------------------------------
       Max CFL number:  0.51E-01 at (  15,   8,   7)
       Max divergence:  0.17E+00 at (  15,   8,   7)
       Min divergence: -0.89E-06 at (  23,   4,  18)
       Max VN number:   0.14E-01 at (  12,   4,   9)
       No. of Lagrangian Particles:             3
       Radiation Loss to Boundaries:         0.010 kW
 
       Time Step       8   March 25, 2020  10:01:43
       Step Size:    0.102E+00 s, Total Time:       0.82 s
       Pressure Iterations:      1
       Maximum Velocity Error:  0.15E-02 on Mesh   1 at (  15   9   7)
       Maximum Pressure Error:  0.94E-02 on Mesh   1 at (  15   8   7)
       ---------------------------------------------------------------
       Max CFL number:  0.66E-01 at (  15,   8,   7)
       Max divergence:  0.19E+00 at (  15,   8,   7)
       Min divergence: -0.89E-06 at (  23,   4,  18)
       Max VN number:   0.14E-01 at (  12,   4,   9)
       No. of Lagrangian Particles:             3
       Radiation Loss to Boundaries:         0.010 kW
 
       Time Step       9   March 25, 2020  10:01:43
       Step Size:    0.102E+00 s, Total Time:       0.92 s
       Pressure Iterations:      1
       Maximum Velocity Error:  0.17E-02 on Mesh   1 at (  15   9   7)
       Maximum Pressure Error:  0.44E-01 on Mesh   1 at (  15   8   7)
       ---------------------------------------------------------------
       Max CFL number:  0.86E-01 at (  15,   8,   7)
       Max divergence:  0.21E+00 at (  14,   8,   7)
       Min divergence: -0.88E-06 at (  23,   4,  18)
       Max VN number:   0.14E-01 at (  14,   7,   8)
       No. of Lagrangian Particles:             3
       Radiation Loss to Boundaries:         0.010 kW
 
       Time Step      10   March 25, 2020  10:01:43
       Step Size:    0.102E+00 s, Total Time:       1.02 s
       Pressure Iterations:      1
       Maximum Velocity Error:  0.18E-02 on Mesh   1 at (  15   9   7)
       Maximum Pressure Error:  0.84E-01 on Mesh   1 at (  15   8   7)
       ---------------------------------------------------------------
       Max CFL number:  0.11E+00 at (  15,   8,   7)
       Max divergence:  0.22E+00 at (  14,   8,   7)
       Min divergence: -0.69E-06 at (   2,   4,   9)
       Max VN number:   0.18E-01 at (  14,   7,   8)
       No. of Lagrangian Particles:             3
       Radiation Loss to Boundaries:         0.024 kW
 
       Time Step      20   March 25, 2020  10:01:44
       Step Size:    0.102E+00 s, Total Time:       2.04 s
       Pressure Iterations:      1
       Maximum Velocity Error:  0.15E-01 on Mesh   1 at (  15   9  10)
       Maximum Pressure Error:  0.12E+01 on Mesh   1 at (  15   8   9)
       ---------------------------------------------------------------
       Max CFL number:  0.71E+00 at (  15,   8,   9)
       Max divergence:  0.43E+00 at (  16,   8,   7)
       Min divergence: -0.59E-01 at (  15,   8,   9)
       Max VN number:   0.21E+00 at (  15,   8,   7)
       No. of Lagrangian Particles:             3
       Radiation Loss to Boundaries:         0.101 kW
 
       Time Step      30   March 25, 2020  10:01:44
       Step Size:    0.707E-01 s, Total Time:       2.89 s
       Pressure Iterations:      1
       Maximum Velocity Error:  0.29E-01 on Mesh   1 at (  15   9  12)
       Maximum Pressure Error:  0.10E+01 on Mesh   1 at (  15   8  14)
       ---------------------------------------------------------------
       Max CFL number:  0.92E+00 at (  15,   8,  13)
       Max divergence:  0.39E+00 at (  16,   8,   7)
       Min divergence: -0.13E+00 at (  15,   8,  14)
       Max VN number:   0.46E+00 at (  15,   8,  13)
       No. of Lagrangian Particles:             3
       Radiation Loss to Boundaries:         0.160 kW
 
       Time Step      40   March 25, 2020  10:01:45
       Step Size:    0.707E-01 s, Total Time:       3.60 s
       Pressure Iterations:      1
       Maximum Velocity Error:  0.19E-01 on Mesh   1 at (  15   9  12)
       Maximum Pressure Error:  0.71E+00 on Mesh   1 at (  15   8   7)
       ---------------------------------------------------------------
       Max CFL number:  0.86E+00 at (  15,   8,  13)
       Max divergence:  0.46E+00 at (  14,   8,   7)
       Min divergence: -0.89E-01 at (  15,   8,   8)
       Max VN number:   0.38E+00 at (  15,   8,  18)
       No. of Lagrangian Particles:             3
       Radiation Loss to Boundaries:         0.188 kW
 
       Time Step      50   March 25, 2020  10:01:45
       Step Size:    0.707E-01 s, Total Time:       4.31 s
       Pressure Iterations:      1
       Maximum Velocity Error:  0.69E-02 on Mesh   1 at (  15   9  11)
       Maximum Pressure Error:  0.48E+00 on Mesh   1 at (  15   8  19)
       ---------------------------------------------------------------
       Max CFL number:  0.95E+00 at (  15,   8,  19)
       Max divergence:  0.45E+00 at (  16,   8,   7)
       Min divergence: -0.10E+00 at (  15,   8,  13)
       Max VN number:   0.38E+00 at (  15,   8,  22)
       No. of Lagrangian Particles:             3
       Radiation Loss to Boundaries:         0.197 kW
 
       Time Step      60   March 25, 2020  10:01:45
       Step Size:    0.616E-01 s, Total Time:       4.98 s
       Pressure Iterations:      1
       Maximum Velocity Error:  0.10E-01 on Mesh   1 at (  15   9  11)
       Maximum Pressure Error:  0.68E+00 on Mesh   1 at (  15   8  10)
       ---------------------------------------------------------------
       Max CFL number:  0.80E+00 at (  15,   8,  21)
       Max divergence:  0.45E+00 at (  16,   8,   7)
       Min divergence: -0.12E+00 at (  15,   8,   8)
       Max VN number:   0.47E+00 at (  16,   8,  24)
       No. of Lagrangian Particles:             3
       Total Heat Release Rate:              0.008 kW
       Radiation Loss to Boundaries:         0.203 kW
 
       Time Step      70   March 25, 2020  10:01:46
       Step Size:    0.746E-01 s, Total Time:       5.69 s
       Pressure Iterations:      1
       Maximum Velocity Error:  0.82E-02 on Mesh   1 at (  14   9  11)
       Maximum Pressure Error:  0.82E+00 on Mesh   1 at (  16   8  18)
       ---------------------------------------------------------------
       Max CFL number:  0.92E+00 at (  15,   8,  15)
       Max divergence:  0.54E+00 at (  14,   8,   7)
       Min divergence: -0.18E+00 at (  15,   8,  13)
       Max VN number:   0.42E+00 at (  15,   8,  13)
       No. of Lagrangian Particles:             3
       Total Heat Release Rate:              0.082 kW
       Radiation Loss to Boundaries:         0.199 kW
 
       Time Step      80   March 25, 2020  10:01:46
       Step Size:    0.746E-01 s, Total Time:       6.44 s
       Pressure Iterations:      1
       Maximum Velocity Error:  0.17E-01 on Mesh   1 at (  16   9  12)
       Maximum Pressure Error:  0.17E+01 on Mesh   1 at (  15   8   7)
       ---------------------------------------------------------------
       Max CFL number:  0.88E+00 at (  14,   8,  15)
       Max divergence:  0.66E+00 at (  15,   8,   7)
       Min divergence: -0.12E+00 at (  15,   8,   9)
       Max VN number:   0.49E+00 at (  16,   8,  24)
       No. of Lagrangian Particles:             3
       Total Heat Release Rate:              0.410 kW
       Radiation Loss to Boundaries:         0.094 kW
 
       Time Step      90   March 25, 2020  10:01:47
       Step Size:    0.666E-01 s, Total Time:       7.14 s
       Pressure Iterations:      1
       Maximum Velocity Error:  0.13E-01 on Mesh   1 at (  15   9  12)
       Maximum Pressure Error:  0.17E+01 on Mesh   1 at (  15   8   7)
       ---------------------------------------------------------------
       Max CFL number:  0.94E+00 at (  16,   8,  17)
       Max divergence:  0.11E+01 at (  15,   8,   7)
       Min divergence: -0.27E+00 at (  15,   8,   8)
       Max VN number:   0.43E+00 at (  15,   8,  13)
       No. of Lagrangian Particles:             3
       Total Heat Release Rate:              1.001 kW
       Radiation Loss to Boundaries:        -0.076 kW
 
       Time Step     100   March 25, 2020  10:01:47
       Step Size:    0.586E-01 s, Total Time:       7.75 s
       Pressure Iterations:      1
       Maximum Velocity Error:  0.21E-01 on Mesh   1 at (  15   9  12)
       Maximum Pressure Error:  0.27E+01 on Mesh   1 at (  16   8  10)
       ---------------------------------------------------------------
       Max CFL number:  0.87E+00 at (  15,   8,  11)
       Max divergence:  0.13E+01 at (  15,   8,   7)
       Min divergence: -0.24E+00 at (  15,   8,   8)
       Max VN number:   0.38E+00 at (  13,   8,  24)
       No. of Lagrangian Particles:             3
       Total Heat Release Rate:              1.537 kW
       Radiation Loss to Boundaries:        -0.211 kW
 
       Time Step     200   March 25, 2020  10:01:52
       Step Size:    0.450E-01 s, Total Time:      12.44 s
       Pressure Iterations:      1
       Maximum Velocity Error:  0.62E-02 on Mesh   1 at (  14   9  12)
       Maximum Pressure Error:  0.35E+01 on Mesh   1 at (  14   8  21)
       ---------------------------------------------------------------
       Max CFL number:  0.86E+00 at (  14,   8,  19)
       Max divergence:  0.23E+01 at (  15,   8,   7)
       Min divergence: -0.44E+00 at (  15,   8,  13)
       Max VN number:   0.51E+00 at (  17,   8,  24)
       No. of Lagrangian Particles:             3
       Total Heat Release Rate:              3.365 kW
       Radiation Loss to Boundaries:        -0.722 kW
 
       Time Step     300   March 25, 2020  10:01:57
       Step Size:    0.450E-01 s, Total Time:      16.94 s
       Pressure Iterations:      1
       Maximum Velocity Error:  0.23E-02 on Mesh   1 at (  16   9  12)
       Maximum Pressure Error:  0.94E+00 on Mesh   1 at (  14   8  24)
       ---------------------------------------------------------------
       Max CFL number:  0.97E+00 at (  15,   8,  21)
       Max divergence:  0.22E+01 at (  15,   8,   7)
       Min divergence: -0.56E+00 at (  15,   8,  13)
       Max VN number:   0.55E+00 at (  14,   8,  24)
       No. of Lagrangian Particles:             3
       Total Heat Release Rate:              3.773 kW
       Radiation Loss to Boundaries:        -0.803 kW
 
       Time Step     400   March 25, 2020  10:02:02
       Step Size:    0.450E-01 s, Total Time:      21.44 s
       Pressure Iterations:      1
       Maximum Velocity Error:  0.19E-02 on Mesh   1 at (  16   9  12)
       Maximum Pressure Error:  0.11E+01 on Mesh   1 at (  16   8  16)
       ---------------------------------------------------------------
       Max CFL number:  0.98E+00 at (  15,   8,  19)
       Max divergence:  0.23E+01 at (  15,   8,   7)
       Min divergence: -0.58E+00 at (  15,   8,  13)
       Max VN number:   0.59E+00 at (  16,   8,  24)
       No. of Lagrangian Particles:             3
       Total Heat Release Rate:              4.157 kW
       Radiation Loss to Boundaries:        -0.874 kW
 
       Time Step     500   March 25, 2020  10:02:06
       Step Size:    0.404E-01 s, Total Time:      25.70 s
       Pressure Iterations:      1
       Maximum Velocity Error:  0.33E-02 on Mesh   1 at (  16   8   6)
       Maximum Pressure Error:  0.82E+01 on Mesh   1 at (  15   8   7)
       ---------------------------------------------------------------
       Max CFL number:  0.90E+00 at (  15,   8,  22)
       Max divergence:  0.31E+01 at (  15,   8,   7)
       Min divergence: -0.60E+00 at (  15,   8,  13)
       Max VN number:   0.48E+00 at (  16,   8,  24)
       No. of Lagrangian Particles:             3
       Total Heat Release Rate:              4.737 kW
       Radiation Loss to Boundaries:        -1.022 kW
 
       Time Step     600   March 25, 2020  10:02:11
       Step Size:    0.404E-01 s, Total Time:      29.74 s
       Pressure Iterations:      1
       Maximum Velocity Error:  0.56E-02 on Mesh   1 at (  16   9  12)
       Maximum Pressure Error:  0.12E+01 on Mesh   1 at (  16   8  18)
       ---------------------------------------------------------------
       Max CFL number:  0.90E+00 at (  15,   8,  21)
       Max divergence:  0.23E+01 at (  15,   8,   7)
       Min divergence: -0.61E+00 at (  15,   8,  13)
       Max VN number:   0.50E+00 at (  16,   8,  24)
       No. of Lagrangian Particles:             3
       Total Heat Release Rate:              4.473 kW
       Radiation Loss to Boundaries:        -0.978 kW
 
       Time Step     700   March 25, 2020  10:02:15
       Step Size:    0.404E-01 s, Total Time:      33.78 s
       Pressure Iterations:      1
       Maximum Velocity Error:  0.68E-02 on Mesh   1 at (  16   9  12)
       Maximum Pressure Error:  0.22E+01 on Mesh   1 at (  16   8  12)
       ---------------------------------------------------------------
       Max CFL number:  0.89E+00 at (  15,   8,  17)
       Max divergence:  0.25E+01 at (  15,   8,   7)
       Min divergence: -0.51E+00 at (  15,   8,  13)
       Max VN number:   0.51E+00 at (  16,   8,  24)
       No. of Lagrangian Particles:             3
       Total Heat Release Rate:              4.649 kW
       Radiation Loss to Boundaries:        -0.986 kW
 
       Time Step     800   March 25, 2020  10:02:20
       Step Size:    0.404E-01 s, Total Time:      37.82 s
       Pressure Iterations:      1
       Maximum Velocity Error:  0.51E-02 on Mesh   1 at (  16   9  11)
       Maximum Pressure Error:  0.20E+01 on Mesh   1 at (  14   8  24)
       ---------------------------------------------------------------
       Max CFL number:  0.90E+00 at (  15,   8,  13)
       Max divergence:  0.28E+01 at (  15,   8,   7)
       Min divergence: -0.69E+00 at (  15,   8,  13)
       Max VN number:   0.50E+00 at (  16,   8,  24)
       No. of Lagrangian Particles:             3
       Total Heat Release Rate:              4.872 kW
       Radiation Loss to Boundaries:        -1.115 kW
 
       Time Step     900   March 25, 2020  10:02:25
       Step Size:    0.404E-01 s, Total Time:      41.86 s
       Pressure Iterations:      1
       Maximum Velocity Error:  0.23E-01 on Mesh   1 at (  15   9   9)
       Maximum Pressure Error:  0.44E+02 on Mesh   1 at (  15   8   7)
       ---------------------------------------------------------------
       Max CFL number:  0.92E+00 at (  15,   8,  18)
       Max divergence:  0.26E+01 at (  14,   8,   7)
       Min divergence: -0.88E+00 at (  15,   8,  13)
       Max VN number:   0.54E+00 at (  16,   8,  24)
       No. of Lagrangian Particles:             3
       Total Heat Release Rate:              5.929 kW
       Radiation Loss to Boundaries:        -1.541 kW
 
       Time Step    1000   March 25, 2020  10:02:30
       Step Size:    0.324E-01 s, Total Time:      45.51 s
       Pressure Iterations:      1
       Maximum Velocity Error:  0.34E-02 on Mesh   1 at (  15   9  12)
       Maximum Pressure Error:  0.38E+01 on Mesh   1 at (  15   8   7)
       ---------------------------------------------------------------
       Max CFL number:  0.92E+00 at (  15,   8,  13)
       Max divergence:  0.51E+01 at (  15,   8,   7)
       Min divergence: -0.12E+01 at (  15,   8,  13)
       Max VN number:   0.50E+00 at (  16,   8,  24)
       No. of Lagrangian Particles:             3
       Total Heat Release Rate:              9.792 kW
       Radiation Loss to Boundaries:        -2.410 kW
 
       Time Step    1100   March 25, 2020  10:02:34
       Step Size:    0.255E-01 s, Total Time:      48.31 s
       Pressure Iterations:      1
       Maximum Velocity Error:  0.75E-02 on Mesh   1 at (  14   9  12)
       Maximum Pressure Error:  0.96E+01 on Mesh   1 at (  15   8   9)
       ---------------------------------------------------------------
       Max CFL number:  0.96E+00 at (  15,   8,  15)
       Max divergence:  0.60E+01 at (  15,   8,   7)
       Min divergence: -0.18E+01 at (  15,   8,  14)
       Max VN number:   0.42E+00 at (  15,   8,  24)
       No. of Lagrangian Particles:             3
       Total Heat Release Rate:             18.768 kW
       Radiation Loss to Boundaries:        -5.043 kW
 
       Time Step    1200   March 25, 2020  10:02:39
       Step Size:    0.294E-01 s, Total Time:      50.82 s
       Pressure Iterations:      1
       Maximum Velocity Error:  0.53E-02 on Mesh   1 at (  14   9  12)
       Maximum Pressure Error:  0.79E+01 on Mesh   1 at (  16   8  24)
       ---------------------------------------------------------------
       Max CFL number:  0.90E+00 at (  15,   8,  13)
       Max divergence:  0.59E+01 at (  15,   8,   7)
       Min divergence: -0.13E+01 at (  15,   8,  13)
       Max VN number:   0.47E+00 at (  16,   8,  24)
       No. of Lagrangian Particles:             3
       Total Heat Release Rate:             12.433 kW
       Radiation Loss to Boundaries:        -3.217 kW
 
       Time Step    1300   March 25, 2020  10:02:44
       Step Size:    0.264E-01 s, Total Time:      53.52 s
       Pressure Iterations:      1
       Maximum Velocity Error:  0.67E-02 on Mesh   1 at (  14   9  12)
       Maximum Pressure Error:  0.20E+02 on Mesh   1 at (  16   8  18)
       ---------------------------------------------------------------
       Max CFL number:  0.87E+00 at (  15,   8,  14)
       Max divergence:  0.59E+01 at (  15,   8,   7)
       Min divergence: -0.13E+01 at (  15,   8,  13)
       Max VN number:   0.47E+00 at (  15,   8,  24)
       No. of Lagrangian Particles:             3
       Total Heat Release Rate:             15.680 kW
       Radiation Loss to Boundaries:        -4.069 kW
 
       Time Step    1400   March 25, 2020  10:02:48
       Step Size:    0.252E-01 s, Total Time:      55.89 s
       Pressure Iterations:      1
       Maximum Velocity Error:  0.81E-02 on Mesh   1 at (  16   9  12)
       Maximum Pressure Error:  0.10E+02 on Mesh   1 at (  16   8  12)
       ---------------------------------------------------------------
       Max CFL number:  0.85E+00 at (  15,   8,  21)
       Max divergence:  0.66E+01 at (  15,   8,   7)
       Min divergence: -0.12E+01 at (  16,   8,  13)
       Max VN number:   0.44E+00 at (  16,   8,  24)
       No. of Lagrangian Particles:             3
       Total Heat Release Rate:             16.620 kW
       Radiation Loss to Boundaries:        -4.457 kW
 
       Time Step    1500   March 25, 2020  10:02:53
       Step Size:    0.238E-01 s, Total Time:      58.25 s
       Pressure Iterations:      1
       Maximum Velocity Error:  0.91E-02 on Mesh   1 at (  14   9  12)
       Maximum Pressure Error:  0.18E+02 on Mesh   1 at (  15   8   7)
       ---------------------------------------------------------------
       Max CFL number:  0.85E+00 at (  16,   8,  19)
       Max divergence:  0.73E+01 at (  15,   8,   7)
       Min divergence: -0.12E+01 at (  15,   8,  13)
       Max VN number:   0.48E+00 at (  15,   8,  24)
       No. of Lagrangian Particles:             3
       Total Heat Release Rate:             21.448 kW
       Radiation Loss to Boundaries:        -5.624 kW
 
       Time Step    1600   March 25, 2020  10:02:58
       Step Size:    0.212E-01 s, Total Time:      60.47 s
       Pressure Iterations:      1
       Maximum Velocity Error:  0.28E-01 on Mesh   1 at (  15   8   6)
       Maximum Pressure Error:  0.14E+03 on Mesh   1 at (  16   8   7)
       ---------------------------------------------------------------
       Max CFL number:  0.83E+00 at (  15,   8,  14)
       Max divergence:  0.76E+01 at (  15,   8,   7)
       Min divergence: -0.18E+01 at (  15,   8,  14)
       Max VN number:   0.51E+00 at (  14,   8,  24)
       No. of Lagrangian Particles:             3
       Total Heat Release Rate:             26.724 kW
       Radiation Loss to Boundaries:        -7.647 kW
 
       Time Step    1700   March 25, 2020  10:03:03
       Step Size:    0.233E-01 s, Total Time:      62.62 s
       Pressure Iterations:      1
       Maximum Velocity Error:  0.22E-01 on Mesh   1 at (  16   9  12)
       Maximum Pressure Error:  0.23E+02 on Mesh   1 at (  16   8  12)
       ---------------------------------------------------------------
       Max CFL number:  0.86E+00 at (  15,   8,  16)
       Max divergence:  0.65E+01 at (  15,   8,   7)
       Min divergence: -0.16E+01 at (  15,   8,  15)
       Max VN number:   0.51E+00 at (  16,   8,  24)
       No. of Lagrangian Particles:             3
       Total Heat Release Rate:             20.807 kW
       Radiation Loss to Boundaries:        -5.507 kW
 
       Time Step    1800   March 25, 2020  10:03:07
       Step Size:    0.203E-01 s, Total Time:      64.94 s
       Pressure Iterations:      2
       Maximum Velocity Error:  0.11E-01 on Mesh   1 at (  15   9   8)
       Maximum Pressure Error:  0.25E+03 on Mesh   1 at (  15   8   8)
       ---------------------------------------------------------------
       Max CFL number:  0.95E+00 at (  15,   8,  14)
       Max divergence:  0.78E+01 at (  15,   8,   7)
       Min divergence: -0.25E+01 at (  15,   8,  15)
       Max VN number:   0.43E+00 at (  17,   8,  24)
       No. of Lagrangian Particles:             3
       Total Heat Release Rate:             36.300 kW
       Radiation Loss to Boundaries:        -9.900 kW
 
       Time Step    1900   March 25, 2020  10:03:12
       Step Size:    0.237E-01 s, Total Time:      67.14 s
       Pressure Iterations:      1
       Maximum Velocity Error:  0.28E-01 on Mesh   1 at (  16   9  12)
       Maximum Pressure Error:  0.36E+02 on Mesh   1 at (  16   8  11)
       ---------------------------------------------------------------
       Max CFL number:  0.94E+00 at (  15,   8,  14)
       Max divergence:  0.61E+01 at (  14,   8,   7)
       Min divergence: -0.18E+01 at (  15,   8,  15)
       Max VN number:   0.61E+00 at (  14,   8,  24)
       No. of Lagrangian Particles:             3
       Total Heat Release Rate:             32.835 kW
       Radiation Loss to Boundaries:        -9.917 kW
 
       Time Step    2000   March 25, 2020  10:03:17
       Step Size:    0.254E-01 s, Total Time:      69.35 s
       Pressure Iterations:      1
       Maximum Velocity Error:  0.19E-01 on Mesh   1 at (  14   9  12)
       Maximum Pressure Error:  0.25E+02 on Mesh   1 at (  14   8  12)
       ---------------------------------------------------------------
       Max CFL number:  0.92E+00 at (  15,   8,  13)
       Max divergence:  0.65E+01 at (  15,   8,   7)
       Min divergence: -0.15E+01 at (  15,   8,  14)
       Max VN number:   0.48E+00 at (  16,   8,  24)
       No. of Lagrangian Particles:             3
       Total Heat Release Rate:             25.419 kW
       Radiation Loss to Boundaries:        -6.853 kW
 
       Time Step    2100   March 25, 2020  10:03:22
       Step Size:    0.239E-01 s, Total Time:      71.52 s
       Pressure Iterations:      1
       Maximum Velocity Error:  0.15E-01 on Mesh   1 at (  17   9  12)
       Maximum Pressure Error:  0.29E+02 on Mesh   1 at (  17   8  24)
       ---------------------------------------------------------------
       Max CFL number:  0.91E+00 at (  15,   8,  14)
       Max divergence:  0.64E+01 at (  16,   8,   7)
       Min divergence: -0.16E+01 at (  15,   8,  14)
       Max VN number:   0.54E+00 at (  17,   8,  24)
       No. of Lagrangian Particles:             3
       Total Heat Release Rate:             26.623 kW
       Radiation Loss to Boundaries:        -7.089 kW
 
       Time Step    2200   March 25, 2020  10:03:27
       Step Size:    0.207E-01 s, Total Time:      73.64 s
       Pressure Iterations:      1
       Maximum Velocity Error:  0.99E-02 on Mesh   1 at (  17   9  11)
       Maximum Pressure Error:  0.28E+02 on Mesh   1 at (  17   8  24)
       ---------------------------------------------------------------
       Max CFL number:  0.85E+00 at (  14,   8,  21)
       Max divergence:  0.70E+01 at (  14,   8,   7)
       Min divergence: -0.14E+01 at (  16,   8,  13)
       Max VN number:   0.43E+00 at (  17,   8,  24)
       No. of Lagrangian Particles:             3
       Total Heat Release Rate:             24.040 kW
       Radiation Loss to Boundaries:        -6.228 kW
 
       Time Step    2300   March 25, 2020  10:03:31
       Step Size:    0.221E-01 s, Total Time:      75.76 s
       Pressure Iterations:      1
       Maximum Velocity Error:  0.48E-02 on Mesh   1 at (  16   9  10)
       Maximum Pressure Error:  0.15E+02 on Mesh   1 at (  16   7  24)
       ---------------------------------------------------------------
       Max CFL number:  0.82E+00 at (  16,   8,  21)
       Max divergence:  0.65E+01 at (  15,   8,   7)
       Min divergence: -0.14E+01 at (  16,   8,  14)
       Max VN number:   0.48E+00 at (  16,   8,  24)
       No. of Lagrangian Particles:             3
       Total Heat Release Rate:             21.407 kW
       Radiation Loss to Boundaries:        -5.307 kW
 
       Time Step    2400   March 25, 2020  10:03:37
       Step Size:    0.216E-01 s, Total Time:      78.02 s
       Pressure Iterations:      1
       Maximum Velocity Error:  0.32E-01 on Mesh   1 at (  15   9  11)
       Maximum Pressure Error:  0.12E+03 on Mesh   1 at (  15   8   9)
       ---------------------------------------------------------------
       Max CFL number:  0.97E+00 at (  15,   8,  15)
       Max divergence:  0.62E+01 at (  14,   8,   7)
       Min divergence: -0.31E+01 at (  15,   8,  16)
       Max VN number:   0.46E+00 at (  14,   8,  24)
       No. of Lagrangian Particles:             3
       Total Heat Release Rate:             38.373 kW
       Radiation Loss to Boundaries:       -11.167 kW
 
       Time Step    2500   March 25, 2020  10:03:41
       Step Size:    0.216E-01 s, Total Time:      80.18 s
       Pressure Iterations:      1
       Maximum Velocity Error:  0.17E-01 on Mesh   1 at (  16   9   8)
       Maximum Pressure Error:  0.19E+03 on Mesh   1 at (  16   8   7)
       ---------------------------------------------------------------
       Max CFL number:  0.82E+00 at (  15,   8,  19)
       Max divergence:  0.11E+02 at (  16,   8,   7)
       Min divergence: -0.11E+01 at (  16,   8,  15)
       Max VN number:   0.46E+00 at (  16,   8,  24)
       No. of Lagrangian Particles:             3
       Total Heat Release Rate:             25.879 kW
       Radiation Loss to Boundaries:        -6.813 kW
 
       Time Step    2600   March 25, 2020  10:03:46
       Step Size:    0.207E-01 s, Total Time:      82.47 s
       Pressure Iterations:      1
       Maximum Velocity Error:  0.52E-02 on Mesh   1 at (  15   9  11)
       Maximum Pressure Error:  0.87E+01 on Mesh   1 at (  15   8  10)
       ---------------------------------------------------------------
       Max CFL number:  0.83E+00 at (  15,   8,  14)
       Max divergence:  0.66E+01 at (  16,   8,   7)
       Min divergence: -0.17E+01 at (  15,   8,  15)
       Max VN number:   0.44E+00 at (  17,   8,  24)
       No. of Lagrangian Particles:             3
       Total Heat Release Rate:             25.547 kW
       Radiation Loss to Boundaries:        -6.493 kW
 
       Time Step    2700   March 25, 2020  10:03:51
       Step Size:    0.191E-01 s, Total Time:      84.54 s
       Pressure Iterations:      1
       Maximum Velocity Error:  0.17E-01 on Mesh   1 at (  14   9  10)
       Maximum Pressure Error:  0.33E+02 on Mesh   1 at (  16   8  15)
       ---------------------------------------------------------------
       Max CFL number:  0.85E+00 at (  15,   8,  21)
       Max divergence:  0.67E+01 at (  15,   8,   7)
       Min divergence: -0.19E+01 at (  15,   8,  17)
       Max VN number:   0.44E+00 at (  16,   8,  24)
       No. of Lagrangian Particles:             3
       Total Heat Release Rate:             27.036 kW
       Radiation Loss to Boundaries:        -6.113 kW
 
       Time Step    2800   March 25, 2020  10:03:56
       Step Size:    0.204E-01 s, Total Time:      86.74 s
       Pressure Iterations:      1
       Maximum Velocity Error:  0.19E-01 on Mesh   1 at (  16   9   7)
       Maximum Pressure Error:  0.12E+03 on Mesh   1 at (  16   8   7)
       ---------------------------------------------------------------
       Max CFL number:  0.88E+00 at (  15,   8,  14)
       Max divergence:  0.99E+01 at (  16,   8,   7)
       Min divergence: -0.20E+01 at (  15,   8,  16)
       Max VN number:   0.44E+00 at (  14,   8,  24)
       No. of Lagrangian Particles:             3
       Total Heat Release Rate:             37.510 kW
       Radiation Loss to Boundaries:       -10.156 kW
 
       Time Step    2900   March 25, 2020  10:04:01
       Step Size:    0.199E-01 s, Total Time:      88.82 s
       Pressure Iterations:      1
       Maximum Velocity Error:  0.15E-01 on Mesh   1 at (  16   9  12)
       Maximum Pressure Error:  0.26E+02 on Mesh   1 at (  14   8  24)
       ---------------------------------------------------------------
       Max CFL number:  0.82E+00 at (  15,   8,  14)
       Max divergence:  0.62E+01 at (  15,   8,   7)
       Min divergence: -0.19E+01 at (  15,   8,  15)
       Max VN number:   0.48E+00 at (  14,   8,  24)
       No. of Lagrangian Particles:             3
       Total Heat Release Rate:             24.239 kW
       Radiation Loss to Boundaries:        -6.171 kW
 
       Time Step    3000   March 25, 2020  10:04:06
       Step Size:    0.218E-01 s, Total Time:      90.98 s
       Pressure Iterations:      1
       Maximum Velocity Error:  0.14E-01 on Mesh   1 at (  16   8   6)
       Maximum Pressure Error:  0.30E+02 on Mesh   1 at (  16   8   7)
       ---------------------------------------------------------------
       Max CFL number:  0.89E+00 at (  15,   8,  16)
       Max divergence:  0.57E+01 at (  16,   8,   7)
       Min divergence: -0.19E+01 at (  15,   8,  15)
       Max VN number:   0.46E+00 at (  15,   8,  24)
       No. of Lagrangian Particles:             3
       Total Heat Release Rate:             25.721 kW
       Radiation Loss to Boundaries:        -6.382 kW
 
       Time Step    3100   March 25, 2020  10:04:10
       Step Size:    0.165E-01 s, Total Time:      93.07 s
       Pressure Iterations:      1
       Maximum Velocity Error:  0.83E-02 on Mesh   1 at (  14   9  12)
       Maximum Pressure Error:  0.46E+02 on Mesh   1 at (  15   8   7)
       ---------------------------------------------------------------
       Max CFL number:  0.81E+00 at (  15,   8,  19)
       Max divergence:  0.63E+01 at (  15,   8,   7)
       Min divergence: -0.26E+01 at (  15,   8,  15)
       Max VN number:   0.42E+00 at (  14,   8,  24)
       No. of Lagrangian Particles:             3
       Total Heat Release Rate:             29.433 kW
       Radiation Loss to Boundaries:        -7.149 kW
 
       Time Step    3200   March 25, 2020  10:04:15
       Step Size:    0.197E-01 s, Total Time:      95.14 s
       Pressure Iterations:      1
       Maximum Velocity Error:  0.15E-01 on Mesh   1 at (  14   9  12)
       Maximum Pressure Error:  0.62E+02 on Mesh   1 at (  16   8  24)
       ---------------------------------------------------------------
       Max CFL number:  0.99E+00 at (  15,   8,  15)
       Max divergence:  0.62E+01 at (  16,   8,   7)
       Min divergence: -0.35E+01 at (  15,   8,  17)
       Max VN number:   0.48E+00 at (  14,   8,  24)
       No. of Lagrangian Particles:             3
       Total Heat Release Rate:             36.868 kW
       Radiation Loss to Boundaries:        -9.112 kW
 
       Time Step    3300   March 25, 2020  10:04:20
       Step Size:    0.185E-01 s, Total Time:      97.25 s
       Pressure Iterations:      1
       Maximum Velocity Error:  0.37E-01 on Mesh   1 at (  15   8   6)
       Maximum Pressure Error:  0.21E+03 on Mesh   1 at (  14   8   7)
       ---------------------------------------------------------------
       Max CFL number:  0.93E+00 at (  15,   8,  18)
       Max divergence:  0.60E+01 at (  16,   8,   7)
       Min divergence: -0.33E+01 at (  15,   8,  19)
       Max VN number:   0.45E+00 at (  16,   8,  24)
       No. of Lagrangian Particles:             3
       Total Heat Release Rate:             40.213 kW
       Radiation Loss to Boundaries:       -11.427 kW
 
       Time Step    3400   March 25, 2020  10:04:25
       Step Size:    0.224E-01 s, Total Time:      99.30 s
       Pressure Iterations:      1
       Maximum Velocity Error:  0.43E-01 on Mesh   1 at (  15   9   8)
       Maximum Pressure Error:  0.39E+02 on Mesh   1 at (  15   8   9)
       ---------------------------------------------------------------
       Max CFL number:  0.84E+00 at (  16,   8,  21)
       Max divergence:  0.69E+01 at (  15,   8,   7)
       Min divergence: -0.11E+01 at (  16,   8,  14)
       Max VN number:   0.48E+00 at (  17,   8,  24)
       No. of Lagrangian Particles:             3
       Total Heat Release Rate:             29.002 kW
       Radiation Loss to Boundaries:        -8.577 kW
 
       Time Step    3500   March 25, 2020  10:04:30
       Step Size:    0.201E-01 s, Total Time:     101.39 s
       Pressure Iterations:      1
       Maximum Velocity Error:  0.37E-01 on Mesh   1 at (  15   8   6)
       Maximum Pressure Error:  0.20E+03 on Mesh   1 at (  14   8   7)
       ---------------------------------------------------------------
       Max CFL number:  0.92E+00 at (  15,   8,  15)
       Max divergence:  0.12E+02 at (  14,   8,   7)
       Min divergence: -0.30E+01 at (  15,   8,  16)
       Max VN number:   0.46E+00 at (  14,   8,  24)
       No. of Lagrangian Particles:             3
       Total Heat Release Rate:             39.733 kW
       Radiation Loss to Boundaries:       -10.790 kW
 
       Time Step    3600   March 25, 2020  10:04:34
       Step Size:    0.221E-01 s, Total Time:     103.45 s
       Pressure Iterations:      1
       Maximum Velocity Error:  0.12E-01 on Mesh   1 at (  15   9  12)
       Maximum Pressure Error:  0.37E+02 on Mesh   1 at (  15   8  13)
       ---------------------------------------------------------------
       Max CFL number:  0.82E+00 at (  15,   8,  17)
       Max divergence:  0.60E+01 at (  15,   8,   7)
       Min divergence: -0.14E+01 at (  15,   8,  14)
       Max VN number:   0.48E+00 at (  16,   8,  24)
       No. of Lagrangian Particles:             3
       Total Heat Release Rate:             27.841 kW
       Radiation Loss to Boundaries:        -7.234 kW
 
       Time Step    3700   March 25, 2020  10:04:40
       Step Size:    0.221E-01 s, Total Time:     105.66 s
       Pressure Iterations:      1
       Maximum Velocity Error:  0.36E-02 on Mesh   1 at (  16   9  12)
       Maximum Pressure Error:  0.10E+02 on Mesh   1 at (  16   8   7)
       ---------------------------------------------------------------
       Max CFL number:  0.87E+00 at (  15,   8,  15)
       Max divergence:  0.76E+01 at (  14,   8,   7)
       Min divergence: -0.16E+01 at (  15,   8,  15)
       Max VN number:   0.50E+00 at (  14,   8,  24)
       No. of Lagrangian Particles:             3
       Total Heat Release Rate:             29.634 kW
       Radiation Loss to Boundaries:        -8.140 kW
 
       Time Step    3800   March 25, 2020  10:04:44
       Step Size:    0.234E-01 s, Total Time:     107.65 s
       Pressure Iterations:      1
       Maximum Velocity Error:  0.89E-02 on Mesh   1 at (  14   9  12)
       Maximum Pressure Error:  0.87E+01 on Mesh   1 at (  14   8  16)
       ---------------------------------------------------------------
       Max CFL number:  0.83E+00 at (  15,   8,  19)
       Max divergence:  0.50E+01 at (  15,   8,   7)
       Min divergence: -0.13E+01 at (  15,   8,  15)
       Max VN number:   0.43E+00 at (  16,   8,  24)
       No. of Lagrangian Particles:             3
       Total Heat Release Rate:             16.511 kW
       Radiation Loss to Boundaries:        -4.015 kW
 
       Time Step    3900   March 25, 2020  10:04:49
       Step Size:    0.205E-01 s, Total Time:     110.04 s
       Pressure Iterations:      1
       Maximum Velocity Error:  0.22E-01 on Mesh   1 at (  15   9   8)
       Maximum Pressure Error:  0.29E+03 on Mesh   1 at (  16   8   7)
       ---------------------------------------------------------------
       Max CFL number:  0.99E+00 at (  15,   8,  14)
       Max divergence:  0.14E+02 at (  16,   8,   7)
       Min divergence: -0.24E+01 at (  15,   8,  15)
       Max VN number:   0.47E+00 at (  16,   8,  24)
       No. of Lagrangian Particles:             3
       Total Heat Release Rate:             42.940 kW
       Radiation Loss to Boundaries:       -10.693 kW
 
       Time Step    4000   March 25, 2020  10:04:54
       Step Size:    0.223E-01 s, Total Time:     112.13 s
       Pressure Iterations:      1
       Maximum Velocity Error:  0.11E-01 on Mesh   1 at (  16   9  12)
       Maximum Pressure Error:  0.23E+02 on Mesh   1 at (  15   7  24)
       ---------------------------------------------------------------
       Max CFL number:  0.86E+00 at (  15,   8,  21)
       Max divergence:  0.76E+01 at (  15,   8,   7)
       Min divergence: -0.16E+01 at (  15,   8,  15)
       Max VN number:   0.49E+00 at (  16,   8,  24)
       No. of Lagrangian Particles:             3
       Total Heat Release Rate:             25.184 kW
       Radiation Loss to Boundaries:        -6.457 kW
 
       Time Step    4100   March 25, 2020  10:04:59
       Step Size:    0.199E-01 s, Total Time:     114.32 s
       Pressure Iterations:      1
       Maximum Velocity Error:  0.81E-02 on Mesh   1 at (  14   9  12)
       Maximum Pressure Error:  0.68E+02 on Mesh   1 at (  16   8   7)
       ---------------------------------------------------------------
       Max CFL number:  0.90E+00 at (  15,   8,  15)
       Max divergence:  0.86E+01 at (  16,   8,   7)
       Min divergence: -0.24E+01 at (  15,   8,  16)
       Max VN number:   0.45E+00 at (  16,   8,  24)
       No. of Lagrangian Particles:             3
       Total Heat Release Rate:             33.013 kW
       Radiation Loss to Boundaries:        -8.440 kW
 
       Time Step    4200   March 25, 2020  10:05:04
       Step Size:    0.196E-01 s, Total Time:     116.38 s
       Pressure Iterations:      1
       Maximum Velocity Error:  0.92E-02 on Mesh   1 at (  16   9  12)
       Maximum Pressure Error:  0.24E+02 on Mesh   1 at (  15   7  24)
       ---------------------------------------------------------------
       Max CFL number:  0.86E+00 at (  15,   8,  17)
       Max divergence:  0.70E+01 at (  16,   8,   7)
       Min divergence: -0.18E+01 at (  15,   8,  16)
       Max VN number:   0.43E+00 at (  16,   8,  24)
       No. of Lagrangian Particles:             3
       Total Heat Release Rate:             28.032 kW
       Radiation Loss to Boundaries:        -6.683 kW
 
       Time Step    4300   March 25, 2020  10:05:09
       Step Size:    0.213E-01 s, Total Time:     118.61 s
       Pressure Iterations:      1
       Maximum Velocity Error:  0.15E-01 on Mesh   1 at (  15   9   7)
       Maximum Pressure Error:  0.39E+02 on Mesh   1 at (  15   8   9)
       ---------------------------------------------------------------
       Max CFL number:  0.91E+00 at (  15,   8,  15)
       Max divergence:  0.75E+01 at (  15,   8,   7)
       Min divergence: -0.20E+01 at (  15,   8,  14)
       Max VN number:   0.49E+00 at (  16,   8,  24)
       No. of Lagrangian Particles:             3
       Total Heat Release Rate:             39.578 kW
       Radiation Loss to Boundaries:       -11.127 kW
 
       Time Step    4370   March 25, 2020  10:05:12
       Step Size:    0.763E-02 s, Total Time:     120.00 s
       Pressure Iterations:      1
       Maximum Velocity Error:  0.66E-02 on Mesh   1 at (  16   8   6)
       Maximum Pressure Error:  0.11E+03 on Mesh   1 at (  15   8   7)
       ---------------------------------------------------------------
       Max CFL number:  0.31E+00 at (  16,   8,  21)
       Max divergence:  0.61E+01 at (  15,   8,   7)
       Min divergence: -0.16E+01 at (  15,   8,  15)
       Max VN number:   0.18E+00 at (  16,   8,  24)
       No. of Lagrangian Particles:             3
       Total Heat Release Rate:             26.170 kW
       Radiation Loss to Boundaries:        -6.363 kW
 


 Time Stepping Wall Clock Time (s):      209.570
 Total Elapsed Wall Clock Time (s):      212.348

STOP: FDS completed successfully (CHID: case001)
